8
cell : 5.4306975, 5.4306975, 5.4306975, 90, 90, 90, xyz
Si    0.000000000000          0.000000000000          0.000000000000
Si    0.000000000000          2.715348700000          2.715348700000
Si    2.715348700000          2.715348700000          0.000000000000
Si    2.715348700000          0.000000000000          2.715348700000
Si    4.073023100000          1.357674400000          4.073023100000
Si    1.357674400000          1.357674400000          1.357674400000
Si    1.357674400000          4.073023100000          4.073023100000
Si    4.073023100000          4.073023100000          1.357674400000
