6

Cl     2.3799757761    0.0000456494    0.0437426074
C     -0.0318923961   -0.0000006118   -0.0005861673
H      0.0550233224    1.0579224335    0.1538373495
H      0.0424320266   -0.6612884666    0.8407083074
H      0.0760992320   -0.3966306549   -0.9913558498
Br    -2.5216379610   -0.0000483496   -0.0463462471
