30 

O   -1.051297586091   1.136639770894   1.277696965527
H   -0.459062349844   1.462993004481   0.505416411917
C   -1.932184900980   2.168305647080   1.617848968721
H   -2.488548351664   2.530637314817   0.744801868237
H   -1.403106779474   3.020005870054   2.067304749340
H   -2.641429723591   1.773548950994   2.349476015642
C   1.651361129150   -0.529803996241   -0.362034285772
C   0.496118786136   -1.379211251098   -0.546098870638
H   2.371591867576   -0.620402165017   -1.167945370228
H   2.131181259700   -0.620499249374   0.600601730710
O   0.462549592971   1.915495593148   -0.656453530504
H   1.246908635640   0.551546916436   -0.445096775995
N   -0.121520473688   -1.991376948889   0.442106568575
C   0.263512969397   -1.788575355775   1.822444536389
C   1.108140499055   3.086726972486   -0.384159018002
C   -1.365744769097   -2.704826496043   0.247400952177
H   -1.287219402709   -3.697467734259   0.691929121745
H   0.039178010036   -0.760588576389   2.115523899454
H   1.323054939274   -1.989749799538   1.969758378649
H   -0.306796194005   -2.470587159062   2.446770050896
H   -1.587017008703   -2.802783895008   -0.811062831735
H   -2.174837519804   -2.156472189144   0.732959231694
O   -0.037936062201   -1.556770246884   -1.746939740474
C   0.416260883444   -0.756620715346   -2.829578451855
H   0.416385275797   3.947777556555   -0.446712687341
H   1.928448005708   3.275586121347   -1.102523026010
H   1.552753833444   3.100041523535   0.629901768589
H   1.415647962048   -1.055842025517   -3.150757577973
H   0.410555268334   0.299200535847   -2.550073836638
H   -0.291386340507   -0.931870056174   -3.636489716575
