10

C      0.6564298697    1.1596540408   -0.2620802273
O     -0.6801687991    1.1622761797    0.2886486810
O     -1.3436355647    0.0340145939   -0.2798102791
C     -0.6830223834   -1.1326872360    0.2607484053
O      0.6535771712   -1.1353098584   -0.2899782528
O      1.3170436088   -0.0070462737    0.2784776686
H      1.1625132841    2.0200216111    0.2009400898
H      0.6358666957    1.1340816815   -1.3594381839
H     -1.1891077689   -1.9930554787   -0.2022647061
H     -0.6624561134   -1.1070992602    1.3581068044
