27

C     -2.9864819749   -1.0865162695   -3.0407490819
C     -3.7198596369    0.0911033534   -2.3802248629
C     -2.8025835816    0.5391588951   -1.2084834376
N     -1.8453219122   -0.5786554219   -0.9681792982
C     -1.6388596603   -1.1981292770   -2.2968158296
H     -2.8431619896   -0.9325195419   -4.1127492669
H     -4.7013117856   -0.2035535272   -2.0008262131
H     -3.8858007882    0.9144617208   -3.0780929941
H     -2.2187182855    1.4249865557   -1.5274344729
H     -2.3080390017   -1.2720041148   -0.3682242669
H     -1.2962672208   -2.2307921836   -2.1752392420
H     -0.8540151113   -0.6484713255   -2.8365631377
H     -3.5625256252   -2.0095055374   -2.9303692853
C     -3.5339399125    0.9121199287    0.0867224567
O     -4.7053666988    1.2321976528    0.1479965158
O     -2.7410466758    0.8749815357    1.1968965390
H     -1.8453219122    0.5786554219    0.9681792982
C      1.8453219122   -0.2554202042   -0.5443711628
C      1.9695623868    0.5004777375   -1.8631812338
C      2.0964087439    2.0053411378   -1.6827115611
O      1.8453219122    0.2554202042    0.5443711628
H      1.7485860000   -1.3825208367   -0.6624151038
H      2.8344878523    0.1012469100   -2.4064571121
H      1.0971375487    0.2566001076   -2.4812477875
H      1.2263963280    2.4037825374   -1.1671459919
H      2.9738472370    2.2470044529   -1.0884202585
H      2.1846335938    2.5062976624   -2.6441668472
