27

C     -1.7474459904   -1.5732232594   -1.3304186287
C     -2.3557630381   -0.2437396508   -0.8655375017
C     -1.4233991104    0.2778945193    0.2445858858
N     -0.2547746881   -0.6585178450    0.2759620282
C     -0.2628549553   -1.4688566166   -0.9594592156
H     -1.8861476598   -1.7516509187   -2.3980190776
H     -3.3677845115   -0.3693972450   -0.4701239922
H     -2.4154334399    0.4685275174   -1.6932177529
H     -1.0573017099    1.2934926499    0.0293314924
H     -0.3730140268   -1.2563156149    1.1112524421
H      0.2233467634   -2.4335358318   -0.7800084235
H      0.3002989301   -0.9464415011   -1.7439631937
H     -2.2040996452   -2.4122839848   -0.7986779068
C     -2.0577657454    0.2440430744    1.7513213081
O     -3.2756625572    0.2556024682    1.8778542972
O     -1.1228290817    0.1437291800    2.6479772594
H      0.0413419265    0.7514095800    2.2449156446
C      1.2837666541    0.2354359029    0.7751231407
C      1.9564869184    0.7836641809   -0.4768624952
C      3.2280193360    1.5417850979   -0.1031815933
O      0.8438579021    1.1395161392    1.6218867493
H      1.8238498690   -0.6398493485    1.2284855879
H      2.1998063750   -0.0320790818   -1.1660831264
H      1.2670182266    1.4561247654   -0.9959243146
H      2.9957534160    2.3493540626    0.5852089355
H      3.9465065301    0.8813298758    0.3778221827
H      3.6942233123    1.9639818846   -0.9902497317
